
Spectre (R) Circuit Simulator
Version 21.1.0.751.isr19 64bit -- 22 May 2023
Copyright (C) 1989-2023 Cadence Design Systems, Inc. All rights reserved worldwide. Cadence and Spectre are registered trademarks of Cadence Design Systems, Inc. All others are the property of their respective holders.

Includes RSA BSAFE(R) Cryptographic or Security Protocol Software from RSA Security, Inc.

User: ee140-aam   Host: eda-1.EECS.Berkeley.EDU   HostID: 2080902A   PID: 1184697
Memory  available: 659.4180 GB  physical: 810.7774 GB
Linux   : Red Hat Enterprise Linux release 8.10 (Ootpa)
CPU Type: AMD EPYC 9454 48-Core Processor
        Socket: Processors [Frequency] (Hyperthreaded Processor)
        0:       0 [1568.5] (),  1 [1500.0] (),  2 [1500.0] (),  3 [1500.0] (),  4 [1500.0] ()
                 5 [1500.0] (),  6 [1500.0] (),  7 [1500.0] (),  8 [1500.0] (),  9 [1500.0] ()
                10 [1500.0] (), 11 [2100.0] (), 12 [1500.0] (), 13 [1500.0] (), 14 [1500.0] ()
                15 [1500.0] (), 16 [1500.0] (), 17 [2011.2] (), 18 [1500.0] (), 19 [1500.0] ()
                20 [1500.0] (), 21 [3800.2] (), 22 [1500.0] (), 23 [1500.0] (), 24 [1500.0] ()
                25 [1500.0] (), 26 [1500.0] (), 27 [1500.0] (), 28 [1500.0] (), 29 [1500.0] ()
                30 [1520.0] (), 31 [1500.0] (), 32 [1500.0] (), 33 [1500.0] (), 34 [1500.0] ()
                35 [1500.0] (), 36 [1500.0] (), 37 [1500.0] (), 38 [1500.0] (), 39 [1500.0] ()
                40 [1500.0] (), 41 [1500.0] (), 42 [1500.0] (), 43 [1500.0] (), 44 [1500.0] ()
                45 [1500.0] (), 46 [1500.0] (), 47 [1500.0] (), 48 [2079.4] (), 49 [1500.0] ()
                50 [1500.0] (), 51 [1500.0] (), 52 [1500.0] (), 53 [1500.0] (), 54 [1500.0] ()
                55 [1500.0] (), 56 [1500.0] (), 57 [1500.0] (), 58 [1500.0] (), 59 [1500.0] ()
                60 [1500.0] (), 61 [1500.0] (), 62 [1500.0] (), 63 [1500.0] (), 64 [1500.0] ()
                65 [1500.0] (), 66 [1500.0] (), 67 [1500.0] (), 68 [3800.2] (), 69 [1500.0] ()
                70 [1500.0] (), 71 [1500.0] (), 72 [1500.0] (), 73 [1500.0] (), 74 [1500.0] ()
                75 [1500.0] (), 76 [1500.0] (), 77 [1500.0] (), 78 [1500.0] (), 79 [1500.0] ()
                80 [1500.0] (), 81 [1500.0] (), 82 [1500.0] (), 83 [2750.0] (), 84 [1500.0] ()
                85 [1500.0] (), 86 [1500.0] (), 87 [1500.0] (), 88 [1500.0] (), 89 [2100.0] ()
                90 [1500.0] (), 91 [1500.0] (), 92 [1500.0] (), 93 [1500.0] (), 94 [1500.0] ()
                95 [1500.0] ()
        
System load averages (1min, 5min, 15min) : 5.3 %, 7.2 %, 10.7 %
Hyperthreading is enabled
HPC is enabled


Simulating `input.scs' on eda-1.EECS.Berkeley.EDU at 7:15:38 PM, Mon May 5, 2025 (process id: 1184697).
Current working directory: /home/cc/ee140/sp25/class/ee140-aam/cadence_finalproj/Sim/EE_140_240A_Sp25_System/spectre/schematic/netlist
Environment variable:
    SPECTRE_DEFAULTS=-E
Command line:
    /share/instsww/cadence/SPECTRE211/tools/bin/spectre -64 input.scs  \
        +escchars +log ../psf/spectre.out -format sst2 -raw ../psf +aps  \
        +mt +lqtimeout 900 -maxw 5 -maxn 5 -env ade +adespetkn=adespe

Licensing Information:
[19:15:38.062426] Configured Lic search path (21.01-s002): 5280@license-srv.eecs.berkeley.edu:5280@bisc.EECS.Berkeley.EDU


Notice from spectre during license check-out.
    Waiting for available license for Spectre.
    Waiting for available license for Spectre.


Spectre received SIGHUP sent from PID: 1184693 with UID: 30391.
Process hierarchy of PID 1184693 :
    PID        COMMAND
    1184693    /share/instsww/cadence/IC618/tools/bin/64bit/cdsServIpc -c 53183 -n 41 -r 0 -x cd /home/cc/ee140/sp25/class/ee140-aam/cadence_finalproj/Sim/EE_140_240A_Sp25_System/spectre/schematic/netlist ; ./runSimulation 
    2630474    /share/instsww/cadence/IC618/tools/dfII/bin/64bit/virtuoso 
    2608053    bash 
    2608040    mate-terminal 
    224591     mate-panel 
    224317     /usr/bin/mate-session 
    224314     dbus-run-session /etc/X11/xinit/Xsession /usr/bin/mate-session 
    224206     xrdp-sesexec 
    3077       /usr/sbin/xrdp-sesman --nodaemon 
About to end simulation, please wait for a moment...

Error found by spectre during license check-out.
    ERROR (SPECTRE-25): 
        Simulation stopped by ADE, reason is unknown.


Aggregate audit (7:25:45 PM, Mon May 5, 2025):
Time used: CPU = 254 ms, elapsed = 607 s (10m  6.8s), util. = 41.9e-03%.
Time spent in licensing: elapsed = 480 s (8m  0.5s), percentage of total = 79.2%.
Peak memory used = 107 Mbytes.
Simulation started at: 7:15:38 PM, Mon May 5, 2025, ended at: 7:25:45 PM, Mon May 5, 2025, with elapsed time (wall clock): 607 s (10m  6.8s).
spectre completes with 1 error, 0 warnings, and 2 notices.
spectre terminated prematurely due to fatal error.
